161
Lattice="12.0 0.0 0.0 0.0 12.0 0.0 0.0 0.0 12.0" Properties=species:S:1:pos:R:3 pbc="T T T"
O        1.26880968       2.00799384       2.74468299
H        1.53430682       2.06387665       3.71056269
H        1.78482796       2.67550034       2.22688472
H        1.56251195       1.10891269       2.39781152
H       11.61728216       5.71881094       2.47320460
N        6.55018656       4.74395668       3.65260255
H        6.45648953       4.15716730       2.69752680
N        2.08355610       1.59406078       8.54980476
H        1.10411625       1.49717716       8.15078792
H        2.60115534       2.29459604       7.95374187
H        1.98177233       2.01940664       9.51282394
H        0.99333338       3.69839073       8.19039479
O        4.94840710       5.36455014       9.16152503
H        9.07161706       9.37484540       4.22764624
N        0.30864419       7.71366575       2.92749956
H        0.47661671      10.18072110       3.71160091
H        1.07465334       7.82269220       3.57714669
H        0.38402250       8.37704933       2.17484371
H       11.43541341       7.79037360       3.40402455
O        6.15703846      10.25988474       3.50899568
H        5.59322244       9.56329447       3.14465590
N        1.77855690       7.63125793       9.14884523
H        2.55940486       6.96832838       9.30697002
H        2.12441551       8.45479870       8.64286229
H        1.04552782       7.16977228       8.58942450
H        0.34824446      10.17844028       9.16294638
O        5.96388304      10.72370940       9.45688039
H        6.58908357      10.92648611       8.79819258
N        7.10658904       1.83029753       3.34525436
H        6.92293050       1.84650221       4.30890371
H        8.07804336       1.93030522       3.20895214
H        5.67953736      10.47183163       4.32443905
H        6.82999417       0.95850113       2.98152882
N       11.38380535       4.63012252       2.53936884
H        0.37927047       4.19432163       2.59073807
O        5.23764101       1.91523463       9.72406364
H        4.78872025       2.70369365       9.56981423
H        9.81299067       9.20751407       4.08265499
H        4.79808795       1.14034947       9.67399628
H        5.44558456       2.01021000      10.62077351
O        0.90954339       4.62400932       8.31081106
H       11.90973532       4.74838140       8.25006246
N        7.32234245       7.58664570       3.02452265
H        7.44703622       8.31696467       3.71480033
H        6.90738053       7.93850210       2.17237687
H        5.55428685       5.11760658       3.76552520
H        6.81243095       6.77788116       3.39732325
N        0.29575823      11.04303794       3.10161425
H        0.86490722      11.83879228       3.63899745
O        6.85201686       8.08463693       8.87628788
H        7.33514301       7.42634987       9.38216748
H        6.79196133       7.75954772       7.97161748
H        3.89904877       6.42834904       8.88324096
H        5.95997296       9.93297232       9.47466547
O       11.40365898      10.37196036       9.27660922
H       10.98366636       9.51571998       9.14787573
O        1.52232797       5.33273311       0.57537606
H        2.38151140       5.72519912       0.77945296
H        0.92079957       6.09312823       0.62203253
O       11.23490924       2.91533552       6.75850641
H       10.79234019       2.97552251       5.90000184
H       10.75124206       2.18961560       7.18074015
O       11.39027944       7.34628556       6.72582995
H       10.92025679       6.69831954       7.27766966
H       11.12238028       7.06320210       5.83941078
O        8.46843195      10.71736286      10.60018556
H        8.56722016      11.42046608      11.25794033
H        9.08031098      10.04804949      10.94065170
O        6.58517573       9.99406234       6.55746149
H        7.02763258      10.76096604       6.17233337
H        5.74193274      10.38458392       6.82288230
O        1.76005464       1.01771919       5.49267877
H        1.97042091       1.01748419       6.44297037
H        1.42973007       0.11076352       5.34706449
H        2.61130613       9.70341237      10.45030683
O        3.05086908      10.48131334      10.08518931
H        3.00326932      10.93357295       9.36521210
O        6.46315322       8.76520583      11.96784797
H        6.45068084       9.65965953      11.58895602
H        5.66116297       8.35357377      11.63844333
O        1.17459993       5.24206908       5.10014497
H        1.31932881       5.52363924       6.01289663
H        0.58053835       4.48981346       5.23255650
O        6.72755497       0.78840875       7.38172809
H        6.38879656       1.54670982       6.86345204
H        7.67917840       0.94039024       7.26494610
O        8.54766572       0.00647503       5.04505141
H        8.87362909      11.10484108       4.86018079
H        8.04775976       0.20198361       4.23573994
O        1.28950300       8.42800979      11.82038504
H        1.47666664       8.10878664      10.87290333
H        2.10220669       8.19476202       0.29510553
O        9.67979076       6.42073355       4.34691506
H        8.92715301       6.72940235       3.79741224
H       10.20024126       5.91677392       3.66976111
O        3.57411616       6.70410217       3.88254785
H        2.88948995       6.15605298       4.29808481
H        4.36137077       6.43047324       4.38049654
O        4.75065560      11.44185335       1.12537088
H        4.08611928      10.74852367       1.19233471
H        5.50353016      10.96568825       0.73651277
O        9.52545264       4.89944439       8.37322841
H        8.78859598       4.35080439       8.66328314
H        9.61490675       4.60849115       7.45400687
O        4.19707467       1.34592128       3.67401439
H        4.94370120       0.74406281       3.51406800
H        4.19055349       1.77303760       2.79630494
O        1.88232618      11.95451227       0.60024434
H        2.04645873      11.02454723       0.38329541
H        1.15184937       0.17494341      11.99928285
O        3.75938422      11.01685511       6.45620508
H        3.21254143      10.45537470       5.88949171
H        3.41660269      10.82155767       7.32965639
O        9.70398414       3.95001545      11.89474325
H       10.46166606       3.91631180      11.28543523
H       10.09834695       4.40269974       0.68193008
O        8.56395964       3.51695075       5.62241042
H        8.39666503       2.62622147       5.26381643
H        7.96953714       4.08250598       5.00494074
O        9.67362450       0.48030482       7.92575778
H        9.61319804      11.88341918       7.16809240
H        9.97840503      11.90238635       8.63894187
O        3.94241531       6.96502967      11.60258943
H        4.27671527       6.84600490      10.67022522
H        4.65706385       6.51294615       0.09115988
O        3.05701732       9.66319585       3.66112506
H        2.54004901       9.57433550       2.84440476
H        2.93148744       8.78098072       4.04252342
O        7.45496127       5.84308508      11.01138472
H        8.16758841       5.46391828      10.47644287
H        6.71355737       5.83938184      10.36109975
O        9.80291393       7.95789017      10.21404942
H       10.38910242       8.34006414      10.87949429
H        9.06376120       7.63923741      10.75692887
O        4.49634356       4.10679358      11.73387805
H        4.54737279       4.95779709      11.19223377
H        5.35888184       4.17561117       0.20355937
O        9.59234481       7.34180146       1.34856172
H        8.87155933       7.47768372       2.05040471
H        9.04432217       7.27322008       0.54011714
O        7.03509631       3.22348773       0.70708240
H        7.17844705       4.13403143       1.01841097
H        7.77878544       2.78888884       1.15838887
O        9.21241078       0.48085900       1.21751966
H        9.66204365      11.65727108       1.45318397
H        9.94048839       1.11619136       1.18684594
O        1.19704207       9.58599592       6.61908889
H        0.25606413       9.67373665       6.83193409
H        1.26900519       8.62493549       6.54801125
O        0.78256134       2.60406093      11.45340836
H        0.61502181       3.56074060      11.40300991
H        1.55655312       2.54573688      10.86673303
O        5.86279361       7.12170548       5.89173203
H        6.34324107       7.94001367       6.08558403
H        5.50772967       6.84683068       6.74368758
O       10.88782815       9.96374825       0.51092816
H       11.78841776      10.32204307       0.44704989
H       11.02688182       9.20519067       1.09766613
O        3.93073389       4.16456745       5.71378770
H        4.68840630       3.57889133       5.56446058
H        4.29569485       4.76448881       6.38016697
